Stray ".ends" card: .ends
Circuit: * C:\Users\Rahul Awari\Desktop\LT-Spice\PMOS I-V\Draft1.asc

Warning: Pd = 0 is less than W.
Warning: Ps = 0 is less than W.
.step v3=0
.step v3=0.6
.step v3=1.2
.step v3=1.8

Date: Wed Jul 29 15:38:13 2020
Total elapsed time: 0.070 seconds.

tnom = 27
temp = 27
method = trap
totiter = 1456
traniter = 0
tranpoints = 0
accept = 0
rejected = 0
matrix size = 6
fillins = 0
solver = Normal
Matrix Compiler1: 236 bytes object code size  0.0/0.0/[0.0]
Matrix Compiler2: 364 bytes object code size  0.0/0.0/[0.0]

