Stray ".ends" card: .ends
Circuit: * C:\Users\Rahul Awari\Desktop\LT-Spice\PMOS I-V\Cmospower.asc

WARNING: Node NC_01 is floating.

WARNING: Less than two connections to node NC_01.  This node is used by M1.
Warning: Pd = 0 is less than W.
Warning: Ps = 0 is less than W.
Warning: Pd = 0 is less than W.
Warning: Ps = 0 is less than W.

Date: Tue Aug 18 23:15:58 2020
Total elapsed time: 0.223 seconds.

tnom = 27
temp = 27
method = trap
totiter = 398
traniter = 0
tranpoints = 0
accept = 0
rejected = 0
matrix size = 6
fillins = 0
solver = Normal
Matrix Compiler1: 200 bytes object code size  0.1/0.1/[0.1]
Matrix Compiler2: off  [0.1]/0.1/0.1

