Stray ".ends" card: .ends
Circuit: * C:\Users\Rahul Awari\Desktop\LT-Spice\PMOS I-V\Cmos.asc

WARNING: Node NC_01 is floating.

WARNING: Less than two connections to node NC_01.  This node is used by M1.
Warning: Pd = 0 is less than W.
Warning: Ps = 0 is less than W.
Warning: Pd = 0 is less than W.
Warning: Ps = 0 is less than W.
.step wp=1.85e-006
.step wp=1.86e-006
.step wp=1.87e-006
.step wp=1.88e-006
.step wp=1.89e-006
.step wp=1.9e-006

Date: Tue Aug 18 23:17:50 2020
Total elapsed time: 0.326 seconds.

tnom = 27
temp = 27
method = trap
totiter = 397
traniter = 0
tranpoints = 0
accept = 0
rejected = 0
matrix size = 6
fillins = 0
solver = Normal
Matrix Compiler1: 200 bytes object code size  0.2/0.1/[0.1]
Matrix Compiler2: 442 bytes object code size  0.1/0.2/[0.1]

