Stray ".ends" card: .ends
Circuit: * C:\Users\smart\Documents\LTspiceXVII\CMOSInverter1.asc

Warning: Pd = 0 is less than W.
Warning: Ps = 0 is less than W.
Warning: Pd = 0 is less than W.
Warning: Ps = 0 is less than W.
Direct Newton iteration for .op point succeeded.

Date: Sun Aug 30 00:05:58 2020
Total elapsed time: 0.157 seconds.

tnom = 27
temp = 27
method = modified trap
totiter = 3003
traniter = 2992
tranpoints = 1387
accept = 1293
rejected = 94
matrix size = 5
fillins = 0
solver = Normal
Matrix Compiler1: 132 bytes object code size  0.1/0.0/[0.0]
Matrix Compiler2: 335 bytes object code size  0.1/0.1/[0.1]

