Stray ".ends" card: .ends
Circuit: * C:\Users\smart\Documents\LTspiceXVII\CMOSInverter.asc

Warning: Pd = 0 is less than W.
Warning: Ps = 0 is less than W.
Warning: Pd = 0 is less than W.
Warning: Ps = 0 is less than W.
.step wp=1.85e-006
.step wp=1.86e-006
.step wp=1.87e-006
.step wp=1.88e-006
.step wp=1.89e-006
.step wp=1.9e-006

Date: Wed Sep 02 15:07:19 2020
Total elapsed time: 0.428 seconds.

tnom = 27
temp = 27
method = trap
totiter = 380
traniter = 0
tranpoints = 0
accept = 0
rejected = 0
matrix size = 5
fillins = 0
solver = Normal
Matrix Compiler1: 132 bytes object code size  0.1/0.1/[0.1]
Matrix Compiler2: off  [0.1]/0.1/0.1

